 &nam_mrf
 initfile="sanl.dat",
 fhmax=9600,
 fhout=24,
 deltim=1200,
 jablowill=.false.,
 heldsuarez=.true.
 /
 &END
