 &nam_dyn
 initfile="../heldsuarez_test/sanl.dat",
 fhmax=384,
 fhout=72,
 dt=1200,
 explicit=.false.,
 jablowill=.true.,
 heldsuarez=.false.
 /
 &END
