 &nam_dyn
 initfile="sanl.dat",
 fhmax=28800,
 fhout=24,
 dt=1200,
 explicit=.false.,
 jablowill=.false.,
 heldsuarez=.true.
 /
 &END
